/*--------------------------------*- C++ -*----------------------------------*\
  =========                 |
  \\      /  F ield         | OpenFOAM: The Open Source CFD Toolbox
   \\    /   O peration     | Website:  https://openfoam.org
    \\  /    A nd           | Version:  9
     \\/     M anipulation  |
\*---------------------------------------------------------------------------*/
FoamFile
{
    format      ascii;
    class       extendedFeatureEdgeMesh;
    location    "constant/extendedFeatureEdgeMesh";
    object      Rod.extendedFeatureEdgeMesh;
}
// * * * * * * * * * * * * * * * * * * * * * * * * * * * * * * * * * * * * * //

// points

256
(
(0.019 0.014298 -0.004)
(0.019 0.014102 -0.003995)
(-0.019 0.014102 -0.003995)
(-0.019 0.014298 -0.004)
(0.019 0.013906 -0.003981)
(-0.019 0.013906 -0.003981)
(0.019 0.013711 -0.003957)
(-0.019 0.013711 -0.003957)
(0.019 0.013518 -0.003923)
(-0.019 0.013518 -0.003923)
(0.019 0.013326 -0.00388)
(-0.019 0.013326 -0.00388)
(0.019 0.013137 -0.003828)
(-0.019 0.013137 -0.003828)
(0.019 0.01295 -0.003766)
(-0.019 0.01295 -0.003766)
(0.019 0.012767 -0.003696)
(-0.019 0.012767 -0.003696)
(0.019 0.012588 -0.003616)
(-0.019 0.012588 -0.003616)
(0.019 0.012412 -0.003528)
(-0.019 0.012412 -0.003528)
(0.019 0.012242 -0.003431)
(-0.019 0.012242 -0.003431)
(0.019 0.012076 -0.003326)
(-0.019 0.012076 -0.003326)
(0.019 0.011915 -0.003213)
(-0.019 0.011915 -0.003213)
(0.019 0.01176 -0.003092)
(-0.019 0.01176 -0.003092)
(0.019 0.011612 -0.002964)
(-0.019 0.011612 -0.002964)
(0.019 0.01147 -0.002828)
(-0.019 0.01147 -0.002828)
(0.019 0.011334 -0.002686)
(-0.019 0.011334 -0.002686)
(0.019 0.011206 -0.002538)
(-0.019 0.011206 -0.002538)
(0.019 0.011085 -0.002383)
(-0.019 0.011085 -0.002383)
(0.019 0.010972 -0.002222)
(-0.019 0.010972 -0.002222)
(0.019 0.010867 -0.002056)
(-0.019 0.010867 -0.002056)
(0.019 0.01077 -0.001886)
(-0.019 0.01077 -0.001886)
(0.019 0.010682 -0.00171)
(-0.019 0.010682 -0.00171)
(0.019 0.010602 -0.001531)
(-0.019 0.010602 -0.001531)
(0.019 0.010532 -0.001348)
(-0.019 0.010532 -0.001348)
(0.019 0.01047 -0.001161)
(-0.019 0.01047 -0.001161)
(0.019 0.010418 -0.000972)
(-0.019 0.010418 -0.000972)
(0.019 0.010375 -0.00078)
(-0.019 0.010375 -0.00078)
(0.019 0.010341 -0.000587)
(-0.019 0.010341 -0.000587)
(0.019 0.010317 -0.000392)
(-0.019 0.010317 -0.000392)
(0.019 0.010303 -0.000196)
(-0.019 0.010303 -0.000196)
(0.019 0.010298 0)
(-0.019 0.010298 0)
(0.019 0.010303 0.000196)
(-0.019 0.010303 0.000196)
(0.019 0.010317 0.000392)
(-0.019 0.010317 0.000392)
(0.019 0.010341 0.000587)
(-0.019 0.010341 0.000587)
(0.019 0.010375 0.00078)
(-0.019 0.010375 0.00078)
(0.019 0.010418 0.000972)
(-0.019 0.010418 0.000972)
(0.019 0.01047 0.001161)
(-0.019 0.01047 0.001161)
(0.019 0.010532 0.001348)
(-0.019 0.010532 0.001348)
(0.019 0.010602 0.001531)
(-0.019 0.010602 0.001531)
(0.019 0.010682 0.00171)
(-0.019 0.010682 0.00171)
(0.019 0.01077 0.001886)
(-0.019 0.01077 0.001886)
(0.019 0.010867 0.002056)
(-0.019 0.010867 0.002056)
(0.019 0.010972 0.002222)
(-0.019 0.010972 0.002222)
(0.019 0.011085 0.002383)
(-0.019 0.011085 0.002383)
(0.019 0.011206 0.002538)
(-0.019 0.011206 0.002538)
(0.019 0.011334 0.002686)
(-0.019 0.011334 0.002686)
(0.019 0.01147 0.002828)
(-0.019 0.01147 0.002828)
(0.019 0.011612 0.002964)
(-0.019 0.011612 0.002964)
(0.019 0.01176 0.003092)
(-0.019 0.01176 0.003092)
(0.019 0.011915 0.003213)
(-0.019 0.011915 0.003213)
(0.019 0.012076 0.003326)
(-0.019 0.012076 0.003326)
(0.019 0.012242 0.003431)
(-0.019 0.012242 0.003431)
(0.019 0.012412 0.003528)
(-0.019 0.012412 0.003528)
(0.019 0.012588 0.003616)
(-0.019 0.012588 0.003616)
(0.019 0.012767 0.003696)
(-0.019 0.012767 0.003696)
(0.019 0.01295 0.003766)
(-0.019 0.01295 0.003766)
(0.019 0.013137 0.003828)
(-0.019 0.013137 0.003828)
(0.019 0.013326 0.00388)
(-0.019 0.013326 0.00388)
(0.019 0.013518 0.003923)
(-0.019 0.013518 0.003923)
(0.019 0.013711 0.003957)
(-0.019 0.013711 0.003957)
(0.019 0.013906 0.003981)
(-0.019 0.013906 0.003981)
(0.019 0.014102 0.003995)
(-0.019 0.014102 0.003995)
(0.019 0.014298 0.004)
(-0.019 0.014298 0.004)
(0.019 0.014494 0.003995)
(-0.019 0.014494 0.003995)
(0.019 0.01469 0.003981)
(-0.019 0.01469 0.003981)
(0.019 0.014885 0.003957)
(-0.019 0.014885 0.003957)
(0.019 0.015078 0.003923)
(-0.019 0.015078 0.003923)
(0.019 0.01527 0.00388)
(-0.019 0.01527 0.00388)
(0.019 0.015459 0.003828)
(-0.019 0.015459 0.003828)
(0.019 0.015646 0.003766)
(-0.019 0.015646 0.003766)
(0.019 0.015829 0.003696)
(-0.019 0.015829 0.003696)
(0.019 0.016008 0.003616)
(-0.019 0.016008 0.003616)
(0.019 0.016184 0.003528)
(-0.019 0.016184 0.003528)
(0.019 0.016354 0.003431)
(-0.019 0.016354 0.003431)
(0.019 0.01652 0.003326)
(-0.019 0.01652 0.003326)
(0.019 0.016681 0.003213)
(-0.019 0.016681 0.003213)
(0.019 0.016836 0.003092)
(-0.019 0.016836 0.003092)
(0.019 0.016984 0.002964)
(-0.019 0.016984 0.002964)
(0.019 0.017126 0.002828)
(-0.019 0.017126 0.002828)
(0.019 0.017262 0.002686)
(-0.019 0.017262 0.002686)
(0.019 0.01739 0.002538)
(-0.019 0.01739 0.002538)
(0.019 0.017511 0.002383)
(-0.019 0.017511 0.002383)
(0.019 0.017624 0.002222)
(-0.019 0.017624 0.002222)
(0.019 0.017729 0.002056)
(-0.019 0.017729 0.002056)
(0.019 0.017826 0.001886)
(-0.019 0.017826 0.001886)
(0.019 0.017914 0.00171)
(-0.019 0.017914 0.00171)
(0.019 0.017994 0.001531)
(-0.019 0.017994 0.001531)
(0.019 0.018064 0.001348)
(-0.019 0.018064 0.001348)
(0.019 0.018126 0.001161)
(-0.019 0.018126 0.001161)
(0.019 0.018178 0.000972)
(-0.019 0.018178 0.000972)
(0.019 0.018221 0.00078)
(-0.019 0.018221 0.00078)
(0.019 0.018255 0.000587)
(-0.019 0.018255 0.000587)
(0.019 0.018279 0.000392)
(-0.019 0.018279 0.000392)
(0.019 0.018293 0.000196)
(-0.019 0.018293 0.000196)
(0.019 0.018298 -0)
(-0.019 0.018298 -0)
(0.019 0.018293 -0.000196)
(-0.019 0.018293 -0.000196)
(0.019 0.018279 -0.000392)
(-0.019 0.018279 -0.000392)
(0.019 0.018255 -0.000587)
(-0.019 0.018255 -0.000587)
(0.019 0.018221 -0.00078)
(-0.019 0.018221 -0.00078)
(0.019 0.018178 -0.000972)
(-0.019 0.018178 -0.000972)
(0.019 0.018126 -0.001161)
(-0.019 0.018126 -0.001161)
(0.019 0.018064 -0.001348)
(-0.019 0.018064 -0.001348)
(0.019 0.017994 -0.001531)
(-0.019 0.017994 -0.001531)
(0.019 0.017914 -0.00171)
(-0.019 0.017914 -0.00171)
(0.019 0.017826 -0.001886)
(-0.019 0.017826 -0.001886)
(0.019 0.017729 -0.002056)
(-0.019 0.017729 -0.002056)
(0.019 0.017624 -0.002222)
(-0.019 0.017624 -0.002222)
(0.019 0.017511 -0.002383)
(-0.019 0.017511 -0.002383)
(0.019 0.01739 -0.002538)
(-0.019 0.01739 -0.002538)
(0.019 0.017262 -0.002686)
(-0.019 0.017262 -0.002686)
(0.019 0.017126 -0.002828)
(-0.019 0.017126 -0.002828)
(0.019 0.016984 -0.002964)
(-0.019 0.016984 -0.002964)
(0.019 0.016836 -0.003092)
(-0.019 0.016836 -0.003092)
(0.019 0.016681 -0.003213)
(-0.019 0.016681 -0.003213)
(0.019 0.01652 -0.003326)
(-0.019 0.01652 -0.003326)
(0.019 0.016354 -0.003431)
(-0.019 0.016354 -0.003431)
(0.019 0.016184 -0.003528)
(-0.019 0.016184 -0.003528)
(0.019 0.016008 -0.003616)
(-0.019 0.016008 -0.003616)
(0.019 0.015829 -0.003696)
(-0.019 0.015829 -0.003696)
(0.019 0.015646 -0.003766)
(-0.019 0.015646 -0.003766)
(0.019 0.015459 -0.003828)
(-0.019 0.015459 -0.003828)
(0.019 0.01527 -0.00388)
(-0.019 0.01527 -0.00388)
(0.019 0.015078 -0.003923)
(-0.019 0.015078 -0.003923)
(0.019 0.014885 -0.003957)
(-0.019 0.014885 -0.003957)
(0.019 0.01469 -0.003981)
(-0.019 0.01469 -0.003981)
(0.019 0.014494 -0.003995)
(-0.019 0.014494 -0.003995)
)

// edges

256
(
(0 1)
(2 3)
(1 4)
(5 2)
(4 6)
(7 5)
(6 8)
(9 7)
(8 10)
(11 9)
(10 12)
(13 11)
(12 14)
(15 13)
(14 16)
(17 15)
(16 18)
(19 17)
(18 20)
(21 19)
(20 22)
(23 21)
(22 24)
(25 23)
(24 26)
(27 25)
(26 28)
(29 27)
(28 30)
(31 29)
(30 32)
(33 31)
(32 34)
(35 33)
(34 36)
(37 35)
(36 38)
(39 37)
(38 40)
(41 39)
(40 42)
(43 41)
(42 44)
(45 43)
(44 46)
(47 45)
(46 48)
(49 47)
(48 50)
(51 49)
(50 52)
(53 51)
(52 54)
(55 53)
(54 56)
(57 55)
(56 58)
(59 57)
(58 60)
(61 59)
(60 62)
(63 61)
(62 64)
(65 63)
(64 66)
(67 65)
(66 68)
(69 67)
(68 70)
(71 69)
(70 72)
(73 71)
(72 74)
(75 73)
(74 76)
(77 75)
(76 78)
(79 77)
(78 80)
(81 79)
(80 82)
(83 81)
(82 84)
(85 83)
(84 86)
(87 85)
(86 88)
(89 87)
(88 90)
(91 89)
(90 92)
(93 91)
(92 94)
(95 93)
(94 96)
(97 95)
(96 98)
(99 97)
(98 100)
(101 99)
(100 102)
(103 101)
(102 104)
(105 103)
(104 106)
(107 105)
(106 108)
(109 107)
(108 110)
(111 109)
(110 112)
(113 111)
(112 114)
(115 113)
(114 116)
(117 115)
(116 118)
(119 117)
(118 120)
(121 119)
(120 122)
(123 121)
(122 124)
(125 123)
(124 126)
(127 125)
(126 128)
(129 127)
(128 130)
(131 129)
(130 132)
(133 131)
(132 134)
(135 133)
(134 136)
(137 135)
(136 138)
(139 137)
(138 140)
(141 139)
(140 142)
(143 141)
(142 144)
(145 143)
(144 146)
(147 145)
(146 148)
(149 147)
(148 150)
(151 149)
(150 152)
(153 151)
(152 154)
(155 153)
(154 156)
(157 155)
(156 158)
(159 157)
(158 160)
(161 159)
(160 162)
(163 161)
(162 164)
(165 163)
(164 166)
(167 165)
(166 168)
(169 167)
(168 170)
(171 169)
(170 172)
(173 171)
(172 174)
(175 173)
(174 176)
(177 175)
(176 178)
(179 177)
(178 180)
(181 179)
(180 182)
(183 181)
(182 184)
(185 183)
(184 186)
(187 185)
(186 188)
(189 187)
(188 190)
(191 189)
(190 192)
(193 191)
(192 194)
(195 193)
(194 196)
(197 195)
(196 198)
(199 197)
(198 200)
(201 199)
(200 202)
(203 201)
(202 204)
(205 203)
(204 206)
(207 205)
(206 208)
(209 207)
(208 210)
(211 209)
(210 212)
(213 211)
(212 214)
(215 213)
(214 216)
(217 215)
(216 218)
(219 217)
(218 220)
(221 219)
(220 222)
(223 221)
(222 224)
(225 223)
(224 226)
(227 225)
(226 228)
(229 227)
(228 230)
(231 229)
(230 232)
(233 231)
(232 234)
(235 233)
(234 236)
(237 235)
(236 238)
(239 237)
(238 240)
(241 239)
(240 242)
(243 241)
(242 244)
(245 243)
(244 246)
(247 245)
(246 248)
(249 247)
(248 250)
(251 249)
(250 252)
(253 251)
(0 254)
(254 252)
(255 253)
(3 255)
)

// concaveStart mixedStart nonFeatureStart
0 0 0
// internalStart flatStart openStart multipleStart
256 256 256 256
// normals

508
(
(0 -0.0255019 -0.999675)
(1 -0 0)
(0 -0.0255019 -0.999675)
(-1 0 0)
(0 -0.071247 -0.997459)
(1 0 0)
(0 -0.071247 -0.997459)
(0 -0.122155 -0.992511)
(0 -0.122155 -0.992511)
(-1 0 0)
(0 -0.173494 -0.984835)
(1 0 0)
(0 -0.173494 -0.984835)
(-1 0 0)
(0 -0.218545 -0.975827)
(1 0 0)
(0 -0.218545 -0.975827)
(-1 0 0)
(0 -0.265275 -0.964173)
(1 0 0)
(0 -0.265275 -0.964173)
(-1 0 0)
(0 -0.314705 -0.94919)
(1 0 0)
(0 -0.314705 -0.94919)
(-1 0 0)
(0 -0.357268 -0.934002)
(1 0 0)
(0 -0.357268 -0.934002)
(-1 0 0)
(0 -0.408031 -0.912968)
(1 0 0)
(0 -0.408031 -0.912968)
(-1 0 0)
(0 -0.447214 -0.894427)
(1 0 0)
(0 -0.447214 -0.894427)
(-1 0 0)
(0 -0.495589 -0.868557)
(1 0 0)
(0 -0.495589 -0.868557)
(-1 0 0)
(0 -0.534568 -0.845126)
(1 0 0)
(0 -0.534568 -0.845126)
(-1 0 0)
(0 -0.574486 -0.818515)
(1 0 0)
(0 -0.574486 -0.818515)
(-1 0 0)
(0 -0.615348 -0.788256)
(1 0 0)
(0 -0.615348 -0.788256)
(-1 0 0)
(0 -0.654152 -0.756363)
(1 0 0)
(0 -0.654152 -0.756363)
(-1 0 0)
(0 -0.691684 -0.7222)
(1 0 0)
(0 -0.691684 -0.7222)
(-1 0 0)
(0 -0.7222 -0.691684)
(1 0 0)
(0 -0.7222 -0.691684)
(-1 0 0)
(0 -0.756363 -0.654152)
(1 0 0)
(0 -0.756363 -0.654152)
(-1 0 0)
(0 -0.788256 -0.615348)
(1 0 0)
(0 -0.788256 -0.615348)
(-1 0 0)
(0 -0.818515 -0.574486)
(1 0 0)
(0 -0.818515 -0.574486)
(-1 0 0)
(0 -0.845126 -0.534568)
(1 0 0)
(0 -0.845126 -0.534568)
(-1 0 0)
(0 -0.868557 -0.495589)
(1 0 0)
(0 -0.868557 -0.495589)
(-1 0 0)
(0 -0.894427 -0.447214)
(1 0 0)
(0 -0.894427 -0.447214)
(-1 0 0)
(0 -0.912968 -0.408031)
(1 0 0)
(0 -0.912968 -0.408031)
(-1 0 0)
(0 -0.934002 -0.357268)
(1 0 0)
(0 -0.934002 -0.357268)
(-1 0 0)
(0 -0.94919 -0.314705)
(1 0 0)
(0 -0.94919 -0.314705)
(-1 0 0)
(0 -0.964173 -0.265275)
(1 0 0)
(0 -0.964173 -0.265275)
(-1 0 0)
(0 -0.975827 -0.218545)
(1 0 0)
(0 -0.975827 -0.218545)
(-1 0 0)
(0 -0.984835 -0.173494)
(1 0 0)
(0 -0.984835 -0.173494)
(-1 0 0)
(0 -0.992511 -0.122155)
(1 0 0)
(0 -0.992511 -0.122155)
(-1 0 0)
(0 -0.997459 -0.071247)
(1 0 0)
(0 -0.997459 -0.071247)
(-1 0 0)
(0 -0.999675 -0.0255019)
(1 0 0)
(0 -0.999675 -0.0255019)
(-1 0 0)
(0 -0.999675 0.0255019)
(1 0 0)
(0 -0.999675 0.0255019)
(-1 0 0)
(0 -0.997459 0.071247)
(1 0 0)
(0 -0.997459 0.071247)
(-1 0 0)
(0 -0.992511 0.122155)
(1 0 0)
(0 -0.992511 0.122155)
(-1 0 0)
(0 -0.984835 0.173494)
(1 0 0)
(0 -0.984835 0.173494)
(-1 0 0)
(0 -0.975827 0.218545)
(1 0 0)
(0 -0.975827 0.218545)
(-1 0 0)
(0 -0.964173 0.265275)
(1 0 0)
(0 -0.964173 0.265275)
(-1 0 0)
(0 -0.94919 0.314705)
(1 0 0)
(0 -0.94919 0.314705)
(-1 0 0)
(0 -0.934002 0.357268)
(1 0 0)
(0 -0.934002 0.357268)
(-1 0 0)
(0 -0.912968 0.408031)
(1 0 0)
(0 -0.912968 0.408031)
(-1 0 0)
(0 -0.894427 0.447214)
(1 0 0)
(0 -0.894427 0.447214)
(-1 0 0)
(0 -0.868557 0.495589)
(1 0 0)
(0 -0.868557 0.495589)
(-1 0 0)
(0 -0.845126 0.534568)
(1 0 0)
(0 -0.845126 0.534568)
(-1 0 0)
(0 -0.818515 0.574486)
(1 0 0)
(0 -0.818515 0.574486)
(-1 0 0)
(0 -0.788256 0.615348)
(1 0 0)
(0 -0.788256 0.615348)
(-1 0 0)
(0 -0.756363 0.654152)
(1 0 0)
(0 -0.756363 0.654152)
(-1 0 0)
(0 -0.7222 0.691684)
(1 0 0)
(0 -0.7222 0.691684)
(-1 0 0)
(0 -0.691684 0.7222)
(1 0 0)
(0 -0.691684 0.7222)
(-1 0 0)
(0 -0.654152 0.756363)
(1 0 0)
(0 -0.654152 0.756363)
(-1 0 0)
(0 -0.615348 0.788256)
(1 0 0)
(0 -0.615348 0.788256)
(-1 0 0)
(0 -0.574486 0.818515)
(1 0 0)
(0 -0.574486 0.818515)
(-1 0 0)
(0 -0.534568 0.845126)
(1 0 0)
(0 -0.534568 0.845126)
(-1 0 0)
(0 -0.495589 0.868557)
(1 0 0)
(0 -0.495589 0.868557)
(-1 0 0)
(0 -0.447214 0.894427)
(1 0 0)
(0 -0.447214 0.894427)
(-1 0 0)
(0 -0.408031 0.912968)
(1 0 0)
(0 -0.408031 0.912968)
(-1 0 0)
(0 -0.357268 0.934002)
(1 0 0)
(0 -0.357268 0.934002)
(-1 0 0)
(0 -0.314705 0.94919)
(1 0 0)
(0 -0.314705 0.94919)
(-1 0 0)
(0 -0.265275 0.964173)
(1 0 0)
(0 -0.265275 0.964173)
(-1 0 0)
(0 -0.218545 0.975827)
(1 0 0)
(0 -0.218545 0.975827)
(-1 0 0)
(0 -0.173494 0.984835)
(1 0 0)
(0 -0.173494 0.984835)
(-1 0 0)
(0 -0.122155 0.992511)
(1 0 0)
(0 -0.122155 0.992511)
(-1 0 0)
(0 -0.071247 0.997459)
(1 0 -0)
(0 -0.071247 0.997459)
(-1 0 0)
(0 -0.0255019 0.999675)
(1 0 0)
(0 -0.0255019 0.999675)
(-1 0 0)
(-0 0.0255019 0.999675)
(1 0 0)
(0 0.0255019 0.999675)
(-1 0 0)
(-0 0.071247 0.997459)
(1 0 0)
(0 0.071247 0.997459)
(-1 0 0)
(-0 0.122155 0.992511)
(1 0 0)
(0 0.122155 0.992511)
(-1 0 0)
(-0 0.173494 0.984835)
(1 0 0)
(0 0.173494 0.984835)
(-1 0 0)
(-0 0.218545 0.975827)
(1 0 0)
(0 0.218545 0.975827)
(-1 0 0)
(-0 0.265275 0.964173)
(1 0 0)
(0 0.265275 0.964173)
(-1 0 0)
(-0 0.314705 0.94919)
(1 0 0)
(0 0.314705 0.94919)
(-1 0 0)
(-0 0.357268 0.934002)
(1 0 0)
(0 0.357268 0.934002)
(-1 0 0)
(-0 0.408031 0.912968)
(1 0 0)
(0 0.408031 0.912968)
(-1 0 0)
(-0 0.447214 0.894427)
(1 0 0)
(0 0.447214 0.894427)
(-1 0 0)
(-0 0.495589 0.868557)
(1 0 0)
(0 0.495589 0.868557)
(-1 0 0)
(-0 0.534568 0.845126)
(1 0 0)
(0 0.534568 0.845126)
(-1 0 0)
(-0 0.574486 0.818515)
(1 0 0)
(0 0.574486 0.818515)
(-1 0 0)
(-0 0.615348 0.788256)
(1 0 0)
(0 0.615348 0.788256)
(-1 0 0)
(-0 0.654152 0.756363)
(1 0 0)
(0 0.654152 0.756363)
(-1 0 0)
(-0 0.691684 0.7222)
(1 0 0)
(0 0.691684 0.7222)
(-1 0 0)
(-0 0.7222 0.691684)
(1 0 0)
(0 0.7222 0.691684)
(-1 0 0)
(-0 0.756363 0.654152)
(1 0 0)
(0 0.756363 0.654152)
(-1 0 0)
(-0 0.788256 0.615348)
(1 0 0)
(0 0.788256 0.615348)
(-1 0 0)
(-0 0.818515 0.574486)
(1 0 0)
(0 0.818515 0.574486)
(-1 0 0)
(-0 0.845126 0.534568)
(1 0 0)
(0 0.845126 0.534568)
(-1 0 0)
(-0 0.868557 0.495589)
(1 0 0)
(0 0.868557 0.495589)
(-1 0 0)
(-0 0.894427 0.447214)
(1 0 0)
(0 0.894427 0.447214)
(-1 0 0)
(-0 0.912968 0.408031)
(1 0 0)
(0 0.912968 0.408031)
(-1 0 0)
(-0 0.934002 0.357268)
(1 0 0)
(0 0.934002 0.357268)
(-1 0 0)
(-0 0.94919 0.314705)
(1 0 0)
(0 0.94919 0.314705)
(-1 0 0)
(-0 0.964173 0.265275)
(1 0 0)
(0 0.964173 0.265275)
(-1 0 0)
(-0 0.975827 0.218545)
(1 0 0)
(0 0.975827 0.218545)
(-1 0 0)
(-0 0.984835 0.173494)
(1 0 0)
(0 0.984835 0.173494)
(-1 0 0)
(-0 0.992511 0.122155)
(1 0 0)
(0 0.992511 0.122155)
(-1 0 0)
(-0 0.997459 0.071247)
(1 0 0)
(0 0.997459 0.071247)
(-1 0 0)
(-0 0.999675 0.0255019)
(1 0 0)
(0 0.999675 0.0255019)
(-1 0 0)
(0 0.999675 -0.0255019)
(1 0 0)
(0 0.999675 -0.0255019)
(-1 0 0)
(0 0.997459 -0.071247)
(1 0 0)
(0 0.997459 -0.071247)
(-1 0 0)
(0 0.992511 -0.122155)
(1 0 0)
(0 0.992511 -0.122155)
(-1 0 0)
(0 0.984835 -0.173494)
(1 0 0)
(0 0.984835 -0.173494)
(-1 0 0)
(0 0.975827 -0.218545)
(1 0 0)
(0 0.975827 -0.218545)
(-1 0 0)
(0 0.964173 -0.265275)
(1 0 0)
(0 0.964173 -0.265275)
(-1 0 0)
(0 0.94919 -0.314705)
(1 0 0)
(0 0.94919 -0.314705)
(-1 0 0)
(0 0.934002 -0.357268)
(1 0 0)
(0 0.934002 -0.357268)
(-1 0 0)
(0 0.912968 -0.408031)
(1 0 0)
(0 0.912968 -0.408031)
(-1 0 0)
(0 0.894427 -0.447214)
(1 0 0)
(0 0.894427 -0.447214)
(-1 0 0)
(0 0.868557 -0.495589)
(1 0 0)
(0 0.868557 -0.495589)
(-1 0 0)
(0 0.845126 -0.534568)
(1 0 0)
(0 0.845126 -0.534568)
(-1 0 0)
(0 0.818515 -0.574486)
(1 0 0)
(0 0.818515 -0.574486)
(-1 0 0)
(0 0.788256 -0.615348)
(1 0 0)
(0 0.788256 -0.615348)
(-1 0 0)
(0 0.756363 -0.654152)
(1 0 0)
(0 0.756363 -0.654152)
(-1 0 0)
(0 0.7222 -0.691684)
(1 0 0)
(0 0.7222 -0.691684)
(-1 0 0)
(0 0.691684 -0.7222)
(1 0 0)
(0 0.691684 -0.7222)
(-1 0 0)
(0 0.654152 -0.756363)
(1 0 0)
(0 0.654152 -0.756363)
(-1 0 0)
(0 0.615348 -0.788256)
(1 0 0)
(0 0.615348 -0.788256)
(-1 0 0)
(0 0.574486 -0.818515)
(1 0 0)
(0 0.574486 -0.818515)
(-1 0 0)
(0 0.534568 -0.845126)
(1 0 0)
(0 0.534568 -0.845126)
(-1 0 0)
(0 0.495589 -0.868557)
(1 0 0)
(0 0.495589 -0.868557)
(-1 0 0)
(0 0.447214 -0.894427)
(1 0 0)
(0 0.447214 -0.894427)
(-1 0 0)
(0 0.408031 -0.912968)
(1 0 0)
(0 0.408031 -0.912968)
(-1 0 0)
(0 0.357268 -0.934002)
(1 0 0)
(0 0.357268 -0.934002)
(-1 0 0)
(0 0.314705 -0.94919)
(1 0 0)
(0 0.314705 -0.94919)
(-1 0 0)
(0 0.265275 -0.964173)
(1 0 0)
(0 0.265275 -0.964173)
(-1 0 0)
(0 0.218545 -0.975827)
(1 0 0)
(0 0.218545 -0.975827)
(-1 0 0)
(0 0.173494 -0.984835)
(1 0 0)
(0 0.173494 -0.984835)
(-1 0 0)
(0 0.122155 -0.992511)
(1 0 0)
(0 0.122155 -0.992511)
(-1 0 0)
(0 0.0255019 -0.999675)
(1 0 0)
(0 0.071247 -0.997459)
(0 0.071247 -0.997459)
(-1 0 0)
(0 0.0255019 -0.999675)
)

// normal volume types

508
(
0
0
0
0
0
0
0
0
0
0
0
0
0
0
0
0
0
0
0
0
0
0
0
0
0
0
0
0
0
0
0
0
0
0
0
0
0
0
0
0
0
0
0
0
0
0
0
0
0
0
0
0
0
0
0
0
0
0
0
0
0
0
0
0
0
0
0
0
0
0
0
0
0
0
0
0
0
0
0
0
0
0
0
0
0
0
0
0
0
0
0
0
0
0
0
0
0
0
0
0
0
0
0
0
0
0
0
0
0
0
0
0
0
0
0
0
0
0
0
0
0
0
0
0
0
0
0
0
0
0
0
0
0
0
0
0
0
0
0
0
0
0
0
0
0
0
0
0
0
0
0
0
0
0
0
0
0
0
0
0
0
0
0
0
0
0
0
0
0
0
0
0
0
0
0
0
0
0
0
0
0
0
0
0
0
0
0
0
0
0
0
0
0
0
0
0
0
0
0
0
0
0
0
0
0
0
0
0
0
0
0
0
0
0
0
0
0
0
0
0
0
0
0
0
0
0
0
0
0
0
0
0
0
0
0
0
0
0
0
0
0
0
0
0
0
0
0
0
0
0
0
0
0
0
0
0
0
0
0
0
0
0
0
0
0
0
0
0
0
0
0
0
0
0
0
0
0
0
0
0
0
0
0
0
0
0
0
0
0
0
0
0
0
0
0
0
0
0
0
0
0
0
0
0
0
0
0
0
0
0
0
0
0
0
0
0
0
0
0
0
0
0
0
0
0
0
0
0
0
0
0
0
0
0
0
0
0
0
0
0
0
0
0
0
0
0
0
0
0
0
0
0
0
0
0
0
0
0
0
0
0
0
0
0
0
0
0
0
0
0
0
0
0
0
0
0
0
0
0
0
0
0
0
0
0
0
0
0
0
0
0
0
0
0
0
0
0
0
0
0
0
0
0
0
0
0
0
0
0
0
0
0
0
0
0
0
0
0
0
0
0
0
0
0
0
0
0
0
0
0
0
0
0
0
0
0
0
0
0
0
0
0
0
0
0
0
0
0
0
0
0
0
0
0
0
0
0
0
0
0
0
0
0
0
0
0
0
0
0
0
0
0
0
0
0
0
0
0
0
0
0
0
0
0
0
0
0
0
0
0
0
0
0
0
0
0
0
0
0
0
0
0
0
0
0
0
0
0
)

// normalDirections

256
(
2(1 -1)
2(1 -1)
2(1 -1)
2(1 -1)
2(1 -1)
2(1 -1)
2(1 -1)
2(1 -1)
2(1 -1)
2(1 -1)
2(1 -1)
2(1 -1)
2(1 -1)
2(1 -1)
2(1 -1)
2(1 -1)
2(1 -1)
2(1 -1)
2(1 -1)
2(1 -1)
2(1 -1)
2(1 -1)
2(1 -1)
2(1 -1)
2(1 -1)
2(1 -1)
2(1 -1)
2(1 -1)
2(1 -1)
2(1 -1)
2(1 -1)
2(1 -1)
2(1 -1)
2(1 -1)
2(1 -1)
2(1 -1)
2(1 -1)
2(1 -1)
2(1 -1)
2(1 -1)
2(1 -1)
2(1 -1)
2(1 -1)
2(1 -1)
2(1 -1)
2(1 -1)
2(1 -1)
2(1 -1)
2(1 -1)
2(1 -1)
2(1 -1)
2(1 -1)
2(1 -1)
2(1 -1)
2(1 -1)
2(1 -1)
2(1 -1)
2(1 -1)
2(1 -1)
2(1 -1)
2(1 -1)
2(1 -1)
2(1 -1)
2(1 -1)
2(1 -1)
2(1 -1)
2(1 -1)
2(1 -1)
2(1 -1)
2(1 -1)
2(1 -1)
2(1 -1)
2(1 -1)
2(1 -1)
2(1 -1)
2(1 -1)
2(1 -1)
2(1 -1)
2(1 -1)
2(1 -1)
2(1 -1)
2(1 -1)
2(1 -1)
2(1 -1)
2(1 -1)
2(1 -1)
2(1 -1)
2(1 -1)
2(1 -1)
2(1 -1)
2(1 -1)
2(1 -1)
2(1 -1)
2(1 -1)
2(1 -1)
2(1 -1)
2(1 -1)
2(1 -1)
2(1 -1)
2(1 -1)
2(1 -1)
2(1 -1)
2(1 -1)
2(1 -1)
2(1 -1)
2(1 -1)
2(1 -1)
2(1 -1)
2(1 -1)
2(1 -1)
2(1 -1)
2(1 -1)
2(1 -1)
2(1 -1)
2(1 -1)
2(1 -1)
2(1 -1)
2(1 -1)
2(1 -1)
2(1 -1)
2(1 -1)
2(1 -1)
2(1 -1)
2(1 -1)
2(1 -1)
2(1 -1)
2(1 -1)
2(1 -1)
2(1 -1)
2(1 -1)
2(1 -1)
2(1 -1)
2(1 -1)
2(1 -1)
2(1 -1)
2(1 -1)
2(1 -1)
2(1 -1)
2(1 -1)
2(1 -1)
2(1 -1)
2(1 -1)
2(1 -1)
2(1 -1)
2(1 -1)
2(1 -1)
2(1 -1)
2(1 -1)
2(1 -1)
2(1 -1)
2(1 -1)
2(1 -1)
2(1 -1)
2(1 -1)
2(1 -1)
2(1 -1)
2(1 -1)
2(1 -1)
2(1 -1)
2(1 -1)
2(1 -1)
2(1 -1)
2(1 -1)
2(1 -1)
2(1 -1)
2(1 -1)
2(1 -1)
2(1 -1)
2(1 -1)
2(1 -1)
2(1 -1)
2(1 -1)
2(1 -1)
2(1 -1)
2(1 -1)
2(1 -1)
2(1 -1)
2(1 -1)
2(1 -1)
2(1 -1)
2(1 -1)
2(1 -1)
2(1 -1)
2(1 -1)
2(1 -1)
2(1 -1)
2(1 -1)
2(1 -1)
2(1 -1)
2(1 -1)
2(1 -1)
2(1 -1)
2(1 -1)
2(1 -1)
2(1 -1)
2(1 -1)
2(1 -1)
2(1 -1)
2(1 -1)
2(1 -1)
2(1 -1)
2(1 -1)
2(1 -1)
2(1 -1)
2(1 -1)
2(1 -1)
2(1 -1)
2(1 -1)
2(1 -1)
2(1 -1)
2(1 -1)
2(1 -1)
2(1 -1)
2(1 -1)
2(1 -1)
2(1 -1)
2(1 -1)
2(1 -1)
2(1 -1)
2(1 -1)
2(1 -1)
2(1 -1)
2(1 -1)
2(1 -1)
2(1 -1)
2(1 -1)
2(1 -1)
2(1 -1)
2(1 -1)
2(1 -1)
2(1 -1)
2(1 -1)
2(1 -1)
2(1 -1)
2(1 -1)
2(1 -1)
2(1 -1)
2(1 -1)
2(1 -1)
2(1 -1)
2(1 -1)
2(1 -1)
2(1 -1)
2(1 -1)
2(1 -1)
2(1 -1)
2(1 -1)
2(1 -1)
2(1 -1)
2(1 -1)
2(1 -1)
2(1 -1)
2(1 -1)
2(1 -1)
2(1 -1)
2(1 -1)
)

// edgeNormals

256
(
2(0 1)
2(2 3)
2(4 5)
2(6 3)
2(7 5)
2(8 9)
2(10 11)
2(12 13)
2(14 15)
2(16 17)
2(18 19)
2(20 21)
2(22 23)
2(24 25)
2(26 27)
2(28 29)
2(30 31)
2(32 33)
2(34 35)
2(36 37)
2(38 39)
2(40 41)
2(42 43)
2(44 45)
2(46 47)
2(48 49)
2(50 51)
2(52 53)
2(54 55)
2(56 57)
2(58 59)
2(60 61)
2(62 63)
2(64 65)
2(66 67)
2(68 69)
2(70 71)
2(72 73)
2(74 75)
2(76 77)
2(78 79)
2(80 81)
2(82 83)
2(84 85)
2(86 87)
2(88 89)
2(90 91)
2(92 93)
2(94 95)
2(96 97)
2(98 99)
2(100 101)
2(102 103)
2(104 105)
2(106 107)
2(108 109)
2(110 111)
2(112 113)
2(114 115)
2(116 117)
2(118 119)
2(120 121)
2(122 123)
2(124 125)
2(126 127)
2(128 129)
2(130 131)
2(132 133)
2(134 135)
2(136 137)
2(138 139)
2(140 141)
2(142 143)
2(144 145)
2(146 147)
2(148 149)
2(150 151)
2(152 153)
2(154 155)
2(156 157)
2(158 159)
2(160 161)
2(162 163)
2(164 165)
2(166 167)
2(168 169)
2(170 171)
2(172 173)
2(174 175)
2(176 177)
2(178 179)
2(180 181)
2(182 183)
2(184 185)
2(186 187)
2(188 189)
2(190 191)
2(192 193)
2(194 195)
2(196 197)
2(198 199)
2(200 201)
2(202 203)
2(204 205)
2(206 207)
2(208 209)
2(210 211)
2(212 213)
2(214 215)
2(216 217)
2(218 219)
2(220 221)
2(222 223)
2(224 225)
2(226 227)
2(228 229)
2(230 231)
2(232 233)
2(234 235)
2(236 237)
2(238 239)
2(240 241)
2(242 243)
2(244 245)
2(246 247)
2(248 249)
2(250 251)
2(252 253)
2(254 255)
2(256 257)
2(258 259)
2(260 261)
2(262 263)
2(264 265)
2(266 267)
2(268 269)
2(270 271)
2(272 273)
2(274 275)
2(276 277)
2(278 279)
2(280 281)
2(282 283)
2(284 285)
2(286 287)
2(288 289)
2(290 291)
2(292 293)
2(294 295)
2(296 297)
2(298 299)
2(300 301)
2(302 303)
2(304 305)
2(306 307)
2(308 309)
2(310 311)
2(312 313)
2(314 315)
2(316 317)
2(318 319)
2(320 321)
2(322 323)
2(324 325)
2(326 327)
2(328 329)
2(330 331)
2(332 333)
2(334 335)
2(336 337)
2(338 339)
2(340 341)
2(342 343)
2(344 345)
2(346 347)
2(348 349)
2(350 351)
2(352 353)
2(354 355)
2(356 357)
2(358 359)
2(360 361)
2(362 363)
2(364 365)
2(366 367)
2(368 369)
2(370 371)
2(372 373)
2(374 375)
2(376 377)
2(378 379)
2(380 381)
2(382 383)
2(384 385)
2(386 387)
2(388 389)
2(390 391)
2(392 393)
2(394 395)
2(396 397)
2(398 399)
2(400 401)
2(402 403)
2(404 405)
2(406 407)
2(408 409)
2(410 411)
2(412 413)
2(414 415)
2(416 417)
2(418 419)
2(420 421)
2(422 423)
2(424 425)
2(426 427)
2(428 429)
2(430 431)
2(432 433)
2(434 435)
2(436 437)
2(438 439)
2(440 441)
2(442 443)
2(444 445)
2(446 447)
2(448 449)
2(450 451)
2(452 453)
2(454 455)
2(456 457)
2(458 459)
2(460 461)
2(462 463)
2(464 465)
2(466 467)
2(468 469)
2(470 471)
2(472 473)
2(474 475)
2(476 477)
2(478 479)
2(480 481)
2(482 483)
2(484 485)
2(486 487)
2(488 489)
2(490 491)
2(492 493)
2(494 495)
2(496 497)
2(498 499)
2(500 501)
2(1 502)
2(503 504)
2(505 506)
2(507 506)
)

// featurePointNormals
0()
// featurePointEdges
0()
// regionEdges
0()


// ************************************************************************* //
